LAMMPS (21 Jul 2010-ICMS)
# water

atom_style     full
newton on on
units   metal
dimension 3
boundary p p p
read_data  data.tip4p
  orthogonal box = (-15.6967 -15.8901 -15.7781) to (15.1861 14.9927 15.1046)
  3000 atoms
  2000 bonds
  1000 angles

# Define interaction parameters
pair_style lj/cut/coul/long/tip4p 2 1 1 1 0.1250 12.000
bond_style harmonic
angle_style harmonic

pair_coeff * * 0.0 0.0  12.0
pair_coeff 2 2 0.00705684 3.16435 12.0

kspace_style pppm/tip4p 1.0e-4
kspace_modify order 4

bond_style harmonic
angle_style harmonic
bond_coeff     1     19.51  0.9572
angle_coeff    1     2.39   104.52
fix      1 all shake 0.0001 20 0  b 1 a 1

# initialize
thermo 50

fix 	NPT all nvt temp 298.3 298.3 0.01 drag 0.5
run 	1000
PPPM initialization ...
  G vector = 0.225047
  grid = 18 18 18
  stencil order = 4
  RMS precision = 6.88864e-05
  brick FFT buffer size/proc = 2744 972 1764
Step Temp E_pair E_mol TotEng Press
0            0    -471.2608            0    -471.2608    -886.5957
Averages over the last 11 of 21 rows, steps 500 to 1000:
Temp E_pair E_mol TotEng Press
297.054 -480.443 0 -403.687 329.223
Loop time of 16.7248 on 8 procs (8 MPI x 1 OpenMP) for 1000 steps with 3000 atoms

Pair  time (%) = 12.4869 (74.6611)
Bond  time (%) = 0.000558853 (0.00334146)
Kspce time (%) = 3.01167 (18.0072)
Neigh time (%) = 0.368152 (2.20123)
Comm  time (%) = 0.443517 (2.65185)
Outpt time (%) = 0.00094223 (0.00563372)
Other time (%) = 0.413055 (2.46971)

FFT Gflps 3d (1d only) = 4.43689 11.2613
