LAMMPS (21 Jul 2010-ICMS)
boundary p fs p

lattice fcc 1.0
Lattice spacing in x,y,z = 1.5874 1.5874 1.5874
region box block 0 6 -1.1 8.1 0 6
create_box 2 box
Created orthogonal box = (0 -1.74614 0) to (9.52441 12.8579 9.52441)
create_atoms 1 box
Created 1368 atoms

mass * 1.0
pair_style lj/cut 2.5
pair_coeff * * 1.0 1.0
neighbor 0.4 multi
neigh_modify delay 2 exclude type 2 2

region lo block INF INF INF 0.1 INF INF
region hi block INF INF 6.9 INF INF INF
region wall union 2 lo hi
set region wall type 2
  432 settings made for type
group hi region hi
216 atoms in group hi
group liq type 1
936 atoms in group liq

compute Tliq liq temp
fix 1 liq nvt temp 0.73 0.73 0.5
fix_modify 1 temp Tliq

fix 2 hi aveforce NULL -0.004 NULL
fix 3 hi setforce 0.0 NULL 0.0
fix 4 hi nve

#dump 1 all atom 1000 dump.lammpstrj

velocity liq create 2.19 73528 dist gaussian rot yes
thermo 500
run 2000
Step Temp E_pair E_mol TotEng Press Volume
0    1.4979151   -5.6200358            0   -3.3748055   -1.0618968    1310.4091
Loop time of 0.519294 on 16 procs (16 MPI x 1 OpenMP) for 2000 steps with 1368 atoms

Pair  time (%) = 0.165638 (31.8967)
Neigh time (%) = 0.0853166 (16.4293)
Comm  time (%) = 0.188573 (36.3134)
Outpt time (%) = 0.000243589 (0.0469077)
Other time (%) = 0.0795231 (15.3137)

fix 5 liq ave/histo 1000 1 1000 -3.0 3.0 30 vx vy vz mode vector file histo-ve.dat
compute ekinatom liq ke/atom
fix 6 liq ave/histo 1000 1 1000 0.0 10.0 30 c_ekinatom mode vector file histo-ke.dat

run 10000
Step Temp E_pair E_mol TotEng Press Volume
2000   0.48936062   -4.3751179            0   -3.6416136   0.45445478    1446.1556
Averages over the last 11 of 21 rows, steps 7000 to 12000:
Temp E_pair E_mol TotEng Press Volume
0.507274 -3.95293 0 -3.19258 -0.0452304 1559.76
Loop time of 2.29612 on 16 procs (16 MPI x 1 OpenMP) for 10000 steps with 1368 atoms

Pair  time (%) = 0.758745 (33.0446)
Neigh time (%) = 0.395944 (17.244)
Comm  time (%) = 0.754522 (32.8607)
Outpt time (%) = 0.00137199 (0.0597527)
Other time (%) = 0.385539 (16.7909)
