LAMMPS (19 Nov 2010-ICMS)
# TIPS water from charmm.

boundary 	p p p
units		real
atom_style	full
special_bonds lj/coul 0.0 0.0 1.0

read_data	data.wat
  orthogonal box = (-5.2675 -4.985 -4.9345) to (4.7325 5.015 5.0655)
  84 atoms
  56 bonds
  28 angles

replicate 10 10 10
  orthogonal box = (-5.2675 -4.985 -4.9345) to (94.7325 95.015 95.0655)
  84000 atoms
  56000 bonds
  28000 angles

pair_style	lj/cut/coul/long/omp 14.0
pair_modify	mix arithmetic
pair_coeff	2 2 0.1521000000 3.15057
pair_coeff	1 1 0.046        0.400014

# 100x larger for minimize
angle_style     harmonic
angle_coeff     1 5500 104.52

# 100x larger constant for minimize
bond_style      harmonic
bond_coeff      1 45000 0.9572

kspace_style	pppm 1.0e-4

velocity        all create 300 234324 dist gaussian
neighbor        2.5 bin
neigh_modify    delay 2 every 1 check yes

thermo		10
thermo_style 	custom step pe temp evdwl ecoul vol press spcpu
thermo_modify   norm yes

minimize        1.0e-4 1.0e-6 100 1000
PPPM initialization ...
  G vector = 0.186884
  grid = 36 36 36
  stencil order = 5
  RMS precision = 5.73697e-05
  brick FFT buffer size/proc = 4508 2592 2898
Step PotEng Temp E_vdwl E_coul Volume Press S/CPU
0     656.3994          300    623.49127      10.7913      1000000     13052196            0
Loop time of 137.017 on 128 procs (32 MPI x 4 OpenMP) for 89 steps with 84000 atoms

Minimization stats:
  Stopping criterion = energy tolerance
  Energy initial, next-to-last, final =
  Force two-norm initial, final = 2.24428e+07 1522.58
  Force max component initial, final = 305690 15.6326
  Final line search alpha, max atom move = 7.9201e-06 0.000123811
  Iterations, force evaluations = 89 481

Pair  time (%) = 80.8737 (59.0245)
Bond  time (%) = 0.172307 (0.125756)
Kspce time (%) = 53.7669 (39.241)
Neigh time (%) = 0 (0)
Comm  time (%) = 1.88835 (1.37819)
Outpt time (%) = 0.00174937 (0.00127676)
Other time (%) = 0.314185 (0.229303)

FFT Gflps 3d (1d only) = 7.85687 9.85394

reset_timestep	0

thermo		500

fix             1 all shake 0.0001 20 2000 b 1 a 1
fix             2 all npt temp 300.0 300.0 100.0 iso 0.0 0.0 1000.0

timestep 	2.0

run 		10000
PPPM initialization ...
  G vector = 0.186884
  grid = 36 36 36
  stencil order = 5
  RMS precision = 5.73697e-05
  brick FFT buffer size/proc = 4508 2592 2898
SHAKE stats (type/ave/delta) on step 0
Step PotEng Temp E_vdwl E_coul Volume Press S/CPU
0   -2.3640272    450.00268   0.26200833    9.5389537      1000000    3192.4678            0
Averages over the last 11 of 21 rows, steps 5000 to 10000:
PotEng Temp E_vdwl E_coul Volume Press
-3.26669 299.846 0.343174 8.56295 830102 -22.7484
Loop time of 667.963 on 128 procs (32 MPI x 4 OpenMP) for 10000 steps with 84000 atoms

Pair  time (%) = 339.834 (50.8762)
Bond  time (%) = 0.0512627 (0.00767449)
Kspce time (%) = 87.1782 (13.0514)
Neigh time (%) = 129.261 (19.3516)
Comm  time (%) = 45.992 (6.88542)
Outpt time (%) = 0.00426503 (0.000638513)
Other time (%) = 65.6415 (9.82712)

FFT Gflps 3d (1d only) = 7.7898 32.7682
