LAMMPS (19 Nov 2010-ICMS)
# TIPS water from charmm.

boundary 	p p p
units		real
atom_style	full
special_bonds lj/coul 0.0 0.0 1.0

read_data	data.wat
  orthogonal box = (-5.2675 -4.985 -4.9345) to (4.7325 5.015 5.0655)
  84 atoms
  56 bonds
  28 angles

replicate 10 10 10
  orthogonal box = (-5.2675 -4.985 -4.9345) to (94.7325 95.015 95.0655)
  84000 atoms
  56000 bonds
  28000 angles

pair_style	lj/cut/coul/long 14.0
pair_modify	mix arithmetic
pair_coeff	2 2 0.1521000000 3.15057
pair_coeff	1 1 0.046        0.400014

# 100x larger for minimize
angle_style     harmonic
angle_coeff     1 5500 104.52

# 100x larger constant for minimize
bond_style      harmonic
bond_coeff      1 45000 0.9572

kspace_style	pppm 1.0e-4

velocity        all create 300 234324 dist gaussian
neighbor        2.5 bin
neigh_modify    delay 2 every 1 check yes

thermo		10
thermo_style 	custom step pe temp evdwl ecoul vol press spcpu
thermo_modify   norm yes

minimize        1.0e-4 1.0e-6 100 1000
PPPM initialization ...
  G vector = 0.186884
  grid = 36 36 36
  stencil order = 5
  RMS precision = 5.73697e-05
  brick FFT buffer size/proc = 2744 900 1764
Step PotEng Temp E_vdwl E_coul Volume Press S/CPU
0     656.3994          300    623.49127      10.7913      1000000     13052196            0
Loop time of 29.0047 on 64 procs (64 MPI x 1 OpenMP) for 94 steps with 84000 atoms

Minimization stats:
  Stopping criterion = energy tolerance
  Energy initial, next-to-last, final =
  Force two-norm initial, final = 2.24428e+07 936.617
  Force max component initial, final = 305690 6.31628
  Final line search alpha, max atom move = 7.95764e-06 5.02626e-05
  Iterations, force evaluations = 94 491

Pair  time (%) = 23.6315 (81.4748)
Bond  time (%) = 0.0967002 (0.333395)
Kspce time (%) = 3.40066 (11.7245)
Neigh time (%) = 0 (0)
Comm  time (%) = 1.51899 (5.23704)
Outpt time (%) = 0.00584599 (0.0201553)
Other time (%) = 0.350983 (1.21009)

FFT Gflps 3d (1d only) = 5.25168 104.547

reset_timestep	0

thermo		500

fix             1 all shake 0.0001 20 2000 b 1 a 1
fix             2 all npt temp 300.0 300.0 100.0 iso 0.0 0.0 1000.0

timestep 	2.0

run 		10000
PPPM initialization ...
  G vector = 0.186884
  grid = 36 36 36
  stencil order = 5
  RMS precision = 5.73697e-05
  brick FFT buffer size/proc = 2744 900 1764
SHAKE stats (type/ave/delta) on step 0
Step PotEng Temp E_vdwl E_coul Volume Press S/CPU
0   -2.6500156    450.00268   0.21842822    9.3017055      1000000    313.22684            0
Averages over the last 11 of 21 rows, steps 5000 to 10000:
PotEng Temp E_vdwl E_coul Volume Press
-3.26743 299.68 0.344099 8.56133 829285 20.9038
Loop time of 680.368 on 64 procs (64 MPI x 1 OpenMP) for 10000 steps with 84000 atoms

Pair  time (%) = 466.158 (68.5156)
Bond  time (%) = 0.0323062 (0.00474834)
Kspce time (%) = 82.568 (12.1358)
Neigh time (%) = 53.6699 (7.88837)
Comm  time (%) = 37.0424 (5.44446)
Outpt time (%) = 0.0128632 (0.00189063)
Other time (%) = 40.8839 (6.0091)

FFT Gflps 3d (1d only) = 5.30359 103.707
