LAMMPS (19 Nov 2010-ICMS)
# TIPS water from charmm.

boundary 	p p p
units		real
atom_style	full
special_bonds lj/coul 0.0 0.0 1.0

read_data	data.wat
  orthogonal box = (-5.2675 -4.985 -4.9345) to (4.7325 5.015 5.0655)
  84 atoms
  56 bonds
  28 angles

replicate 10 10 10
  orthogonal box = (-5.2675 -4.985 -4.9345) to (94.7325 95.015 95.0655)
  84000 atoms
  56000 bonds
  28000 angles

pair_style	lj/cut/coul/long/omp 14.0
pair_modify	mix arithmetic
pair_coeff	2 2 0.1521000000 3.15057
pair_coeff	1 1 0.046        0.400014

# 100x larger for minimize
angle_style     harmonic
angle_coeff     1 5500 104.52

# 100x larger constant for minimize
bond_style      harmonic
bond_coeff      1 45000 0.9572

kspace_style	pppm 1.0e-4

velocity        all create 300 234324 dist gaussian
neighbor        2.5 bin
neigh_modify    delay 2 every 1 check yes

thermo		10
thermo_style 	custom step pe temp evdwl ecoul vol press spcpu
thermo_modify   norm yes

minimize        1.0e-4 1.0e-6 100 1000
PPPM initialization ...
  G vector = 0.186884
  grid = 36 36 36
  stencil order = 5
  RMS precision = 5.73697e-05
  brick FFT buffer size/proc = 2744 900 1764
Step PotEng Temp E_vdwl E_coul Volume Press S/CPU
0     656.3994          300    623.49127      10.7913      1000000     13052196            0
Loop time of 53.2733 on 128 procs (64 MPI x 2 OpenMP) for 76 steps with 84000 atoms

Minimization stats:
  Stopping criterion = energy tolerance
  Energy initial, next-to-last, final =
  Force two-norm initial, final = 2.24428e+07 1188.75
  Force max component initial, final = 305690 11.7349
  Final line search alpha, max atom move = 7.37936e-06 8.65957e-05
  Iterations, force evaluations = 76 377

Pair  time (%) = 33.6948 (63.249)
Bond  time (%) = 0.0692734 (0.130034)
Kspce time (%) = 17.9067 (33.6129)
Neigh time (%) = 0 (0)
Comm  time (%) = 1.33318 (2.50254)
Outpt time (%) = 0.00150752 (0.00282978)
Other time (%) = 0.267821 (0.502731)

FFT Gflps 3d (1d only) = 6.52537 17.7405

reset_timestep	0

thermo		500

fix             1 all shake 0.0001 20 2000 b 1 a 1
fix             2 all npt temp 300.0 300.0 100.0 iso 0.0 0.0 1000.0

timestep 	2.0

run 		10000
PPPM initialization ...
  G vector = 0.186884
  grid = 36 36 36
  stencil order = 5
  RMS precision = 5.73697e-05
  brick FFT buffer size/proc = 2744 900 1764
SHAKE stats (type/ave/delta) on step 0
Step PotEng Temp E_vdwl E_coul Volume Press S/CPU
0   -2.5405107    450.00268   0.23618957     9.391748      1000000    1443.7086            0
Averages over the last 11 of 21 rows, steps 5000 to 10000:
PotEng Temp E_vdwl E_coul Volume Press
-3.26474 300.085 0.342349 8.56573 829050 4.58308
Loop time of 547.277 on 128 procs (64 MPI x 2 OpenMP) for 10000 steps with 84000 atoms

Pair  time (%) = 322.501 (58.9283)
Bond  time (%) = 0.0492301 (0.00899546)
Kspce time (%) = 75.6074 (13.8152)
Neigh time (%) = 63.8359 (11.6643)
Comm  time (%) = 42.301 (7.72937)
Outpt time (%) = 0.00394313 (0.000720499)
Other time (%) = 42.9783 (7.85312)

FFT Gflps 3d (1d only) = 6.41117 68.2405
