LAMMPS (19 Nov 2010-ICMS)
# TIPS water from charmm.

boundary 	p p p
units		real
atom_style	full
special_bonds lj/coul 0.0 0.0 1.0

read_data	data.wat
  orthogonal box = (-5.2675 -4.985 -4.9345) to (4.7325 5.015 5.0655)
  84 atoms
  56 bonds
  28 angles

replicate 10 10 10
  orthogonal box = (-5.2675 -4.985 -4.9345) to (94.7325 95.015 95.0655)
  84000 atoms
  56000 bonds
  28000 angles

pair_style	lj/cut/coul/long 14.0
pair_modify	mix arithmetic
pair_coeff	2 2 0.1521000000 3.15057
pair_coeff	1 1 0.046        0.400014

# 100x larger for minimize
angle_style     harmonic
angle_coeff     1 5500 104.52

# 100x larger constant for minimize
bond_style      harmonic
bond_coeff      1 45000 0.9572

kspace_style	pppm 1.0e-4

velocity        all create 300 234324 dist gaussian
neighbor        2.5 bin
neigh_modify    delay 2 every 1 check yes

thermo		10
thermo_style 	custom step pe temp evdwl ecoul vol press spcpu
thermo_modify   norm yes

minimize        1.0e-4 1.0e-6 100 1000
PPPM initialization ...
  G vector = 0.186884
  grid = 36 36 36
  stencil order = 5
  RMS precision = 5.73697e-05
  brick FFT buffer size/proc = 2156 540 1764
Step PotEng Temp E_vdwl E_coul Volume Press S/CPU
0     656.3994          300    623.49127      10.7913      1000000     13052196            0
Loop time of 17.0365 on 96 procs for 75 steps with 84000 atoms

Minimization stats:
  Stopping criterion = energy tolerance
  Energy initial, next-to-last, final =
  Force two-norm initial, final = 2.24428e+07 1776.45
  Force max component initial, final = 305690 18.7076
  Final line search alpha, max atom move = 1.66271e-05 0.000311053
  Iterations, force evaluations = 75 379

Pair  time (%) = 12.6017 (73.9686)
Bond  time (%) = 0.042644 (0.250309)
Kspce time (%) = 3.49802 (20.5325)
Neigh time (%) = 0 (0)
Comm  time (%) = 0.766705 (4.50036)
Outpt time (%) = 0.00294927 (0.0173114)
Other time (%) = 0.124529 (0.730951)

FFT Gflps 3d (1d only) = 2.02685 123.723

reset_timestep	0

thermo		500

fix             1 all shake 0.0001 20 2000 b 1 a 1
fix             2 all npt temp 300.0 300.0 100.0 iso 0.0 0.0 1000.0

timestep 	2.0

run 		10000
PPPM initialization ...
  G vector = 0.186884
  grid = 36 36 36
  stencil order = 5
  RMS precision = 5.73697e-05
  brick FFT buffer size/proc = 2156 540 1764
SHAKE stats (type/ave/delta) on step 0
Step PotEng Temp E_vdwl E_coul Volume Press S/CPU
0   -2.4203949    450.00268   0.25283868     9.492901      1000000    2629.4675            0
Averages over the last 11 of 21 rows, steps 5000 to 10000:
PotEng Temp E_vdwl E_coul Volume Press
-3.2664 299.967 0.342103 8.56435 829432 -29.6387
Loop time of 522.392 on 96 procs for 10000 steps with 84000 atoms

Pair  time (%) = 329.39 (63.0543)
Bond  time (%) = 0.0235752 (0.00451293)
Kspce time (%) = 100.961 (19.3267)
Neigh time (%) = 38.0149 (7.27708)
Comm  time (%) = 25.3768 (4.85781)
Outpt time (%) = 0.00758399 (0.00145178)
Other time (%) = 28.6173 (5.47812)

FFT Gflps 3d (1d only) = 2.03116 127.039
