LAMMPS (19 Nov 2010-ICMS)
# TIPS water from charmm.

boundary 	p p p
units		real
atom_style	full
special_bonds lj/coul 0.0 0.0 1.0

read_data	data.wat
  orthogonal box = (-5.2675 -4.985 -4.9345) to (4.7325 5.015 5.0655)
  84 atoms
  56 bonds
  28 angles

replicate 10 10 10
  orthogonal box = (-5.2675 -4.985 -4.9345) to (94.7325 95.015 95.0655)
  84000 atoms
  56000 bonds
  28000 angles

pair_style	lj/cut/coul/long 14.0
pair_modify	mix arithmetic
pair_coeff	2 2 0.1521000000 3.15057
pair_coeff	1 1 0.046        0.400014

# 100x larger for minimize
angle_style     harmonic
angle_coeff     1 5500 104.52

# 100x larger constant for minimize
bond_style      harmonic
bond_coeff      1 45000 0.9572

kspace_style	pppm 1.0e-4

velocity        all create 300 234324 dist gaussian
neighbor        2.5 bin
neigh_modify    delay 2 every 1 check yes

thermo		10
thermo_style 	custom step pe temp evdwl ecoul vol press spcpu
thermo_modify   norm yes

minimize        1.0e-4 1.0e-6 100 1000
PPPM initialization ...
  G vector = 0.186884
  grid = 36 36 36
  stencil order = 5
  RMS precision = 5.73697e-05
  brick FFT buffer size/proc = 1960 540 2352
Step PotEng Temp E_vdwl E_coul Volume Press S/CPU
0     656.3994          300    623.49127      10.7913      1000000     13052196            0
Loop time of 19.3115 on 128 procs (128 MPI x 1 OpenMP) for 67 steps with 84000 atoms

Minimization stats:
  Stopping criterion = energy tolerance
  Energy initial, next-to-last, final =
  Force two-norm initial, final = 2.24428e+07 1472
  Force max component initial, final = 305690 16.3999
  Final line search alpha, max atom move = 8.60293e-06 0.000141087
  Iterations, force evaluations = 67 322

Pair  time (%) = 10.5467 (54.6139)
Bond  time (%) = 0.0299561 (0.155121)
Kspce time (%) = 7.05581 (36.5369)
Neigh time (%) = 0 (0)
Comm  time (%) = 1.46951 (7.60953)
Outpt time (%) = 0.0016795 (0.00869691)
Other time (%) = 0.207772 (1.0759)

FFT Gflps 3d (1d only) = 0.784057 42.8436

reset_timestep	0

thermo		500

fix             1 all shake 0.0001 20 2000 b 1 a 1
fix             2 all npt temp 300.0 300.0 100.0 iso 0.0 0.0 1000.0

timestep 	2.0

run 		10000
PPPM initialization ...
  G vector = 0.186884
  grid = 36 36 36
  stencil order = 5
  RMS precision = 5.73697e-05
  brick FFT buffer size/proc = 1960 540 2352
SHAKE stats (type/ave/delta) on step 0
Step PotEng Temp E_vdwl E_coul Volume Press S/CPU
0   -2.3765508    450.00268   0.25729054    9.5313842      1000000    2996.9127            0
Averages over the last 11 of 21 rows, steps 5000 to 10000:
PotEng Temp E_vdwl E_coul Volume Press
-3.26697 300.124 0.343048 8.56285 829765 -12.8084
Loop time of 681.707 on 128 procs (128 MPI x 1 OpenMP) for 10000 steps with 84000 atoms

Pair  time (%) = 337.606 (49.5236)
Bond  time (%) = 0.0482105 (0.00707203)
Kspce time (%) = 217.342 (31.882)
Neigh time (%) = 30.0619 (4.4098)
Comm  time (%) = 53.9413 (7.91268)
Outpt time (%) = 0.00499905 (0.000733315)
Other time (%) = 42.7026 (6.26407)

FFT Gflps 3d (1d only) = 0.770719 110.992
