LAMMPS (19 Nov 2010-ICMS)
# TIPS water from charmm.

boundary 	p p p
units		real
atom_style	full
special_bonds lj/coul 0.0 0.0 1.0

read_data	data.wat
  orthogonal box = (-5.2675 -4.985 -4.9345) to (4.7325 5.015 5.0655)
  84 atoms
  56 bonds
  28 angles

replicate 10 10 10
  orthogonal box = (-5.2675 -4.985 -4.9345) to (94.7325 95.015 95.0655)
  84000 atoms
  56000 bonds
  28000 angles

pair_style	lj/cut/coul/long/omp 14.0
pair_modify	mix arithmetic
pair_coeff	2 2 0.1521000000 3.15057
pair_coeff	1 1 0.046        0.400014

# 100x larger for minimize
angle_style     harmonic
angle_coeff     1 5500 104.52

# 100x larger constant for minimize
bond_style      harmonic
bond_coeff      1 45000 0.9572

kspace_style	pppm 1.0e-4

velocity        all create 300 234324 dist gaussian
neighbor        2.5 bin
neigh_modify    delay 2 every 1 check yes

thermo		10
thermo_style 	custom step pe temp evdwl ecoul vol press spcpu
thermo_modify   norm yes

minimize        1.0e-4 1.0e-6 100 1000
PPPM initialization ...
  G vector = 0.186884
  grid = 36 36 36
  stencil order = 5
  RMS precision = 5.73697e-05
  brick FFT buffer size/proc = 2744 900 1764
Step PotEng Temp E_vdwl E_coul Volume Press S/CPU
0     656.3994          300    623.49127      10.7913      1000000     13052196            0
Loop time of 39.3724 on 128 procs (64 MPI x 2 OpenMP) for 69 steps with 84000 atoms

Minimization stats:
  Stopping criterion = energy tolerance
  Energy initial, next-to-last, final =
  Force two-norm initial, final = 2.24428e+07 1269.18
  Force max component initial, final = 305690 14.544
  Final line search alpha, max atom move = 6.06519e-06 8.82124e-05
  Iterations, force evaluations = 69 345

Pair  time (%) = 28.4634 (72.2927)
Bond  time (%) = 0.0675714 (0.171621)
Kspce time (%) = 9.40752 (23.8937)
Neigh time (%) = 0 (0)
Comm  time (%) = 1.11773 (2.83888)
Outpt time (%) = 0.00391128 (0.00993406)
Other time (%) = 0.312275 (0.793132)

FFT Gflps 3d (1d only) = 5.30946 106.26

reset_timestep	0

thermo		500

fix             1 all shake 0.0001 20 2000 b 1 a 1
fix             2 all npt temp 300.0 300.0 100.0 iso 0.0 0.0 1000.0

timestep 	2.0

run 		10000
PPPM initialization ...
  G vector = 0.186884
  grid = 36 36 36
  stencil order = 5
  RMS precision = 5.73697e-05
  brick FFT buffer size/proc = 2744 900 1764
SHAKE stats (type/ave/delta) on step 0
Step PotEng Temp E_vdwl E_coul Volume Press S/CPU
0   -2.3593207    450.00268   0.25830015      9.54722      1000000    3151.5815            0
Averages over the last 11 of 21 rows, steps 5000 to 10000:
PotEng Temp E_vdwl E_coul Volume Press
-3.26702 300.055 0.342133 8.56372 829269 -24.5419
Loop time of 430.297 on 128 procs (64 MPI x 2 OpenMP) for 10000 steps with 84000 atoms

Pair  time (%) = 228.935 (53.204)
Bond  time (%) = 0.03619 (0.00841047)
Kspce time (%) = 63.4341 (14.7419)
Neigh time (%) = 54.2531 (12.6083)
Comm  time (%) = 38.8655 (9.03226)
Outpt time (%) = 0.0127926 (0.00297296)
Other time (%) = 44.7601 (10.4021)

FFT Gflps 3d (1d only) = 5.31402 104.55
