LAMMPS (19 Nov 2010-ICMS)
# TIPS water from charmm.

boundary 	p p p
units		real
atom_style	full
special_bonds lj/coul 0.0 0.0 1.0

read_data	data.wat
  orthogonal box = (-5.2675 -4.985 -4.9345) to (4.7325 5.015 5.0655)
  84 atoms
  56 bonds
  28 angles

replicate 10 10 10
  orthogonal box = (-5.2675 -4.985 -4.9345) to (94.7325 95.015 95.0655)
  84000 atoms
  56000 bonds
  28000 angles

pair_style	lj/cut/coul/long 14.0
pair_modify	mix arithmetic
pair_coeff	2 2 0.1521000000 3.15057
pair_coeff	1 1 0.046        0.400014

# 100x larger for minimize
angle_style     harmonic
angle_coeff     1 5500 104.52

# 100x larger constant for minimize
bond_style      harmonic
bond_coeff      1 45000 0.9572

kspace_style	pppm 1.0e-4

velocity        all create 300 234324 dist gaussian
neighbor        2.5 bin
neigh_modify    delay 2 every 1 check yes

thermo		10
thermo_style 	custom step pe temp evdwl ecoul vol press spcpu
thermo_modify   norm yes

minimize        1.0e-4 1.0e-6 100 1000
PPPM initialization ...
  G vector = 0.186884
  grid = 36 36 36
  stencil order = 5
  RMS precision = 5.73697e-05
  brick FFT buffer size/proc = 4508 2592 2898
Step PotEng Temp E_vdwl E_coul Volume Press S/CPU
0     656.3994          300    623.49127      10.7913      1000000     13052196            0
Loop time of 37.0813 on 32 procs (32 MPI x 1 OpenMP) for 66 steps with 84000 atoms

Minimization stats:
  Stopping criterion = energy tolerance
  Energy initial, next-to-last, final =
  Force two-norm initial, final = 2.24428e+07 1845.02
  Force max component initial, final = 305690 21.4166
  Final line search alpha, max atom move = 1.11736e-05 0.000239301
  Iterations, force evaluations = 66 322

Pair  time (%) = 32.9621 (88.8916)
Bond  time (%) = 0.136127 (0.367105)
Kspce time (%) = 2.73817 (7.38423)
Neigh time (%) = 0 (0)
Comm  time (%) = 0.989518 (2.66851)
Outpt time (%) = 0.00284141 (0.00766264)
Other time (%) = 0.252492 (0.680916)

FFT Gflps 3d (1d only) = 5.09839 57.0403

reset_timestep	0

thermo		500

fix             1 all shake 0.0001 20 2000 b 1 a 1
fix             2 all npt temp 300.0 300.0 100.0 iso 0.0 0.0 1000.0

timestep 	2.0

run 		10000
PPPM initialization ...
  G vector = 0.186884
  grid = 36 36 36
  stencil order = 5
  RMS precision = 5.73697e-05
  brick FFT buffer size/proc = 4508 2592 2898
SHAKE stats (type/ave/delta) on step 0
Step PotEng Temp E_vdwl E_coul Volume Press S/CPU
0   -2.3239777    450.00268   0.26499006      9.57526      1000000    3527.5065            0
Averages over the last 11 of 21 rows, steps 5000 to 10000:
PotEng Temp E_vdwl E_coul Volume Press
-3.26645 300.305 0.343489 8.5629 828928 19.9276
Loop time of 1295.1 on 32 procs (32 MPI x 1 OpenMP) for 10000 steps with 84000 atoms

Pair  time (%) = 975.357 (75.311)
Bond  time (%) = 0.0362342 (0.00279778)
Kspce time (%) = 110.625 (8.54178)
Neigh time (%) = 113.246 (8.74416)
Comm  time (%) = 36.5733 (2.82396)
Outpt time (%) = 0.00886729 (0.000684677)
Other time (%) = 59.2586 (4.57559)

FFT Gflps 3d (1d only) = 5.08495 56.7901
