LAMMPS (19 Nov 2010-ICMS)
# TIPS water from charmm.

boundary 	p p p
units		real
atom_style	full
special_bonds lj/coul 0.0 0.0 1.0

read_data	data.wat
  orthogonal box = (-5.2675 -4.985 -4.9345) to (4.7325 5.015 5.0655)
  84 atoms
  56 bonds
  28 angles

replicate 10 10 10
  orthogonal box = (-5.2675 -4.985 -4.9345) to (94.7325 95.015 95.0655)
  84000 atoms
  56000 bonds
  28000 angles

pair_style	lj/cut/coul/long/omp 14.0
pair_modify	mix arithmetic
pair_coeff	2 2 0.1521000000 3.15057
pair_coeff	1 1 0.046        0.400014

# 100x larger for minimize
angle_style     harmonic
angle_coeff     1 5500 104.52

# 100x larger constant for minimize
bond_style      harmonic
bond_coeff      1 45000 0.9572

kspace_style	pppm 1.0e-4

velocity        all create 300 234324 dist gaussian
neighbor        2.5 bin
neigh_modify    delay 2 every 1 check yes

thermo		10
thermo_style 	custom step pe temp evdwl ecoul vol press spcpu
thermo_modify   norm yes

minimize        1.0e-4 1.0e-6 100 1000
PPPM initialization ...
  G vector = 0.186884
  grid = 36 36 36
  stencil order = 5
  RMS precision = 5.73697e-05
  brick FFT buffer size/proc = 4508 2592 2898
Step PotEng Temp E_vdwl E_coul Volume Press S/CPU
0     656.3994          300    623.49127      10.7913      1000000     13052196            0
Loop time of 107.132 on 128 procs (32 MPI x 4 OpenMP) for 82 steps with 84000 atoms

Minimization stats:
  Stopping criterion = energy tolerance
  Energy initial, next-to-last, final =
  Force two-norm initial, final = 2.24428e+07 1263.6
  Force max component initial, final = 305690 16.6575
  Final line search alpha, max atom move = 8.96517e-06 0.000149338
  Iterations, force evaluations = 82 426

Pair  time (%) = 84.0951 (78.497)
Bond  time (%) = 0.163778 (0.152875)
Kspce time (%) = 21.2421 (19.8281)
Neigh time (%) = 0 (0)
Comm  time (%) = 1.25811 (1.17436)
Outpt time (%) = 0.00303371 (0.00283176)
Other time (%) = 0.369457 (0.344863)

FFT Gflps 3d (1d only) = 5.55168 58.178

reset_timestep	0

thermo		500

fix             1 all shake 0.0001 20 2000 b 1 a 1
fix             2 all npt temp 300.0 300.0 100.0 iso 0.0 0.0 1000.0

timestep 	2.0

run 		10000
PPPM initialization ...
  G vector = 0.186884
  grid = 36 36 36
  stencil order = 5
  RMS precision = 5.73697e-05
  brick FFT buffer size/proc = 4508 2592 2898
SHAKE stats (type/ave/delta) on step 0
Step PotEng Temp E_vdwl E_coul Volume Press S/CPU
0   -2.4764433    450.00268   0.24795996    9.4428466      1000000    2123.7086            0
Averages over the last 11 of 21 rows, steps 5000 to 10000:
PotEng Temp E_vdwl E_coul Volume Press
-3.26578 300.385 0.344 8.56306 829399 28.7897
Loop time of 533.299 on 128 procs (32 MPI x 4 OpenMP) for 10000 steps with 84000 atoms

Pair  time (%) = 249.691 (46.8201)
Bond  time (%) = 0.040384 (0.00757249)
Kspce time (%) = 76.8926 (14.4183)
Neigh time (%) = 109.587 (20.5489)
Comm  time (%) = 36.9872 (6.93554)
Outpt time (%) = 0.00728879 (0.00136674)
Other time (%) = 60.0935 (11.2683)

FFT Gflps 3d (1d only) = 5.40534 58.2606
