LAMMPS (19 Nov 2010-ICMS)
# TIPS water from charmm.

boundary 	p p p
units		real
atom_style	full
special_bonds lj/coul 0.0 0.0 1.0

read_data	data.wat
  orthogonal box = (-5.2675 -4.985 -4.9345) to (4.7325 5.015 5.0655)
  84 atoms
  56 bonds
  28 angles

replicate 10 10 10
  orthogonal box = (-5.2675 -4.985 -4.9345) to (94.7325 95.015 95.0655)
  84000 atoms
  56000 bonds
  28000 angles

pair_style	lj/cut/coul/long/omp 14.0
pair_modify	mix arithmetic
pair_coeff	2 2 0.1521000000 3.15057
pair_coeff	1 1 0.046        0.400014

# 100x larger for minimize
angle_style     harmonic
angle_coeff     1 5500 104.52

# 100x larger constant for minimize
bond_style      harmonic
bond_coeff      1 45000 0.9572

kspace_style	pppm 1.0e-4

velocity        all create 300 234324 dist gaussian
neighbor        2.5 bin
neigh_modify    delay 2 every 1 check yes

thermo		10
thermo_style 	custom step pe temp evdwl ecoul vol press spcpu
thermo_modify   norm yes

minimize        1.0e-4 1.0e-6 100 1000
PPPM initialization ...
  G vector = 0.186884
  grid = 36 36 36
  stencil order = 5
  RMS precision = 5.73697e-05
  brick FFT buffer size/proc = 2744 900 1764
Step PotEng Temp E_vdwl E_coul Volume Press S/CPU
0     656.3994          300    623.49127      10.7913      1000000     13052196            0
Loop time of 16.6797 on 128 procs (64 MPI x 2 OpenMP) for 84 steps with 84000 atoms

Minimization stats:
  Stopping criterion = energy tolerance
  Energy initial, next-to-last, final =
  Force two-norm initial, final = 2.24428e+07 1326.85
  Force max component initial, final = 305690 14.6931
  Final line search alpha, max atom move = 7.30151e-06 0.000107281
  Iterations, force evaluations = 84 443

Pair  time (%) = 12.2296 (73.3204)
Bond  time (%) = 0.0479575 (0.28752)
Kspce time (%) = 3.86201 (23.154)
Neigh time (%) = 0 (0)
Comm  time (%) = 0.458186 (2.74697)
Outpt time (%) = 0.0010033 (0.00601507)
Other time (%) = 0.0809199 (0.48514)

FFT Gflps 3d (1d only) = 10.3217 85.3641

reset_timestep	0

thermo		500

fix             1 all shake 0.0001 20 2000 b 1 a 1
fix             2 all npt temp 300.0 300.0 100.0 iso 0.0 0.0 1000.0

timestep 	2.0

run 		10000
PPPM initialization ...
  G vector = 0.186884
  grid = 36 36 36
  stencil order = 5
  RMS precision = 5.73697e-05
  brick FFT buffer size/proc = 2744 900 1764
SHAKE stats (type/ave/delta) on step 0
Step PotEng Temp E_vdwl E_coul Volume Press S/CPU
0   -2.4164866    450.00268   0.25444899     9.495168      1000000    2681.6722            0
Averages over the last 11 of 21 rows, steps 5000 to 10000:
PotEng Temp E_vdwl E_coul Volume Press
-3.26515 299.49 0.342743 8.56494 830104 -21.7558
Loop time of 298.593 on 128 procs (64 MPI x 2 OpenMP) for 10000 steps with 84000 atoms

Pair  time (%) = 171.475 (57.4277)
Bond  time (%) = 0.0159633 (0.00534617)
Kspce time (%) = 50.3823 (16.8732)
Neigh time (%) = 49.4863 (16.5732)
Comm  time (%) = 12.3889 (4.14908)
Outpt time (%) = 0.00299207 (0.00100206)
Other time (%) = 14.8413 (4.97043)

FFT Gflps 3d (1d only) = 11.6873 85.3446
