LAMMPS (19 Nov 2010-ICMS)
# TIPS water from charmm.

boundary 	p p p
units		real
atom_style	full
special_bonds lj/coul 0.0 0.0 1.0
newton off

read_data	data.wat
  orthogonal box = (-5.2675 -4.985 -4.9345) to (4.7325 5.015 5.0655)
  84 atoms
  56 bonds
  28 angles

replicate 10 10 10
  orthogonal box = (-5.2675 -4.985 -4.9345) to (94.7325 95.015 95.0655)
  84000 atoms
  56000 bonds
  28000 angles

pair_style	lj/cut/coul/long/gpu 14.0
pair_modify	mix arithmetic
pair_coeff	2 2 0.1521000000 3.15057
pair_coeff	1 1 0.046        0.400014

# 100x larger for minimize
angle_style     harmonic
angle_coeff     1 5500 104.52

# 100x larger constant for minimize
bond_style      harmonic
bond_coeff      1 45000 0.9572

kspace_style	pppm 1.0e-4

velocity        all create 300 234324 dist gaussian
neighbor        1.5 bin
neigh_modify    delay 2 every 1 check yes

thermo		10
thermo_style 	custom step pe temp evdwl ecoul vol press spcpu
thermo_modify   norm yes

fix		0 all gpu force/neigh 0 1 1.0

minimize        1.0e-4 1.0e-6 100 1000
PPPM initialization ...
  G vector = 0.186884
  grid = 36 36 36
  stencil order = 5
  RMS precision = 5.73697e-05
  brick FFT buffer size/proc = 4508 2592 2898
Step PotEng Temp E_vdwl E_coul Volume Press S/CPU
0    656.38475          300    623.47661    10.791304      1000000     13051859            0
Loop time of 2.97929 on 32 procs for 68 steps with 84000 atoms

Minimization stats:
  Stopping criterion = energy tolerance
  Energy initial, next-to-last, final =
  Force two-norm initial, final = 2.24422e+07 1471.21
  Force max component initial, final = 305693 19.7007
  Final line search alpha, max atom move = 6.60889e-06 0.000130199
  Iterations, force evaluations = 68 324

Pair  time (%) = 0.0841061 (2.82303)
Bond  time (%) = 0.076263 (2.55978)
Kspce time (%) = 2.45945 (82.5517)
Neigh time (%) = 9.17539e-05 (0.00307973)
Comm  time (%) = 0.219994 (7.38412)
Outpt time (%) = 0.00308741 (0.103629)
Other time (%) = 0.136293 (4.5747)

FFT Gflps 3d (1d only) = 9.12179 41.2433

reset_timestep	0

thermo		500

fix             1 all shake 0.0001 20 2000 b 1 a 1
fix             2 all npt temp 300.0 300.0 100.0 iso 0.0 0.0 1000.0

timestep 	2.0

run 		10000
PPPM initialization ...
  G vector = 0.186884
  grid = 36 36 36
  stencil order = 5
  RMS precision = 5.73697e-05
  brick FFT buffer size/proc = 4508 2592 2898
SHAKE stats (type/ave/delta) on step 0
Step PotEng Temp E_vdwl E_coul Volume Press S/CPU
0   -2.3759313    450.00268   0.25896003    9.5302182      1000000    3033.3929            0
Averages over the last 11 of 21 rows, steps 5000 to 10000:
PotEng Temp E_vdwl E_coul Volume Press
-3.26544 299.676 0.343968 8.56339 830068 7.61871
Loop time of 211.074 on 32 procs for 10000 steps with 84000 atoms

Pair  time (%) = 73.5808 (34.8602)
Bond  time (%) = 0.00829104 (0.00392803)
Kspce time (%) = 93.01 (44.0652)
Neigh time (%) = 0.127719 (0.060509)
Comm  time (%) = 10.072 (4.7718)
Outpt time (%) = 0.0103079 (0.00488353)
Other time (%) = 34.2646 (16.2335)

FFT Gflps 3d (1d only) = 8.03431 41.1591
