LAMMPS (19 Nov 2010-ICMS)
# TIPS water from charmm.

boundary 	p p p
units		real
atom_style	full
special_bonds lj/coul 0.0 0.0 1.0

read_data	data.wat
  orthogonal box = (-5.2675 -4.985 -4.9345) to (4.7325 5.015 5.0655)
  84 atoms
  56 bonds
  28 angles

replicate 10 10 10
  orthogonal box = (-5.2675 -4.985 -4.9345) to (94.7325 95.015 95.0655)
  84000 atoms
  56000 bonds
  28000 angles

pair_style	lj/cut/coul/long 14.0
pair_modify	mix arithmetic
pair_coeff	2 2 0.1521000000 3.15057
pair_coeff	1 1 0.046        0.400014

# 100x larger for minimize
angle_style     harmonic
angle_coeff     1 5500 104.52

# 100x larger constant for minimize
bond_style      harmonic
bond_coeff      1 45000 0.9572

kspace_style	pppm 1.0e-4

velocity        all create 300 234324 dist gaussian
neighbor        2.5 bin
neigh_modify    delay 2 every 1 check yes

thermo		10
thermo_style 	custom step pe temp evdwl ecoul vol press spcpu
thermo_modify   norm yes

minimize        1.0e-4 1.0e-6 100 1000
PPPM initialization ...
  G vector = 0.186884
  grid = 36 36 36
  stencil order = 5
  RMS precision = 5.73697e-05
  brick FFT buffer size/proc = 1960 540 2352
Step PotEng Temp E_vdwl E_coul Volume Press S/CPU
0     656.3994          300    623.49127      10.7913      1000000     13052196            0
Loop time of 21.4991 on 128 procs for 71 steps with 84000 atoms

Minimization stats:
  Stopping criterion = energy tolerance
  Energy initial, next-to-last, final =
  Force two-norm initial, final = 2.24428e+07 2144.75
  Force max component initial, final = 305690 30.6394
  Final line search alpha, max atom move = 1.15197e-05 0.000352957
  Iterations, force evaluations = 71 341

Pair  time (%) = 10.9172 (50.7799)
Bond  time (%) = 0.0307343 (0.142956)
Kspce time (%) = 7.95948 (37.0224)
Neigh time (%) = 0 (0)
Comm  time (%) = 1.81289 (8.43241)
Outpt time (%) = 0.0268552 (0.124913)
Other time (%) = 0.751913 (3.49742)

FFT Gflps 3d (1d only) = 0.633209 78.458

reset_timestep	0

thermo		500

fix             1 all shake 0.0001 20 2000 b 1 a 1
fix             2 all npt temp 300.0 300.0 100.0 iso 0.0 0.0 1000.0

timestep 	2.0

run 		10000
PPPM initialization ...
  G vector = 0.186884
  grid = 36 36 36
  stencil order = 5
  RMS precision = 5.73697e-05
  brick FFT buffer size/proc = 1960 540 2352
SHAKE stats (type/ave/delta) on step 0
Step PotEng Temp E_vdwl E_coul Volume Press S/CPU
0   -2.3059177    450.00268   0.26579788    9.5920309      1000000     3658.957            0
Averages over the last 11 of 21 rows, steps 5000 to 10000:
PotEng Temp E_vdwl E_coul Volume Press
-3.26584 300.241 0.343377 8.56361 829374 12.6845
Loop time of 705.711 on 128 procs for 10000 steps with 84000 atoms

Pair  time (%) = 311.542 (44.1459)
Bond  time (%) = 0.029292 (0.00415071)
Kspce time (%) = 229.667 (32.544)
Neigh time (%) = 30.851 (4.37161)
Comm  time (%) = 62.1643 (8.80875)
Outpt time (%) = 0.0781048 (0.0110675)
Other time (%) = 71.3795 (10.1145)

FFT Gflps 3d (1d only) = 0.64553 77.7622
