LAMMPS (19 Nov 2010-ICMS)
# TIPS water from charmm.

boundary 	p p p
units		real
atom_style	full
special_bonds lj/coul 0.0 0.0 1.0

read_data	data.wat
  orthogonal box = (-5.2675 -4.985 -4.9345) to (4.7325 5.015 5.0655)
  84 atoms
  56 bonds
  28 angles

replicate 10 10 10
  orthogonal box = (-5.2675 -4.985 -4.9345) to (94.7325 95.015 95.0655)
  84000 atoms
  56000 bonds
  28000 angles

pair_style	lj/cut/coul/long 14.0
pair_modify	mix arithmetic
pair_coeff	2 2 0.1521000000 3.15057
pair_coeff	1 1 0.046        0.400014

# 100x larger for minimize
angle_style     harmonic
angle_coeff     1 5500 104.52

# 100x larger constant for minimize
bond_style      harmonic
bond_coeff      1 45000 0.9572

kspace_style	pppm 1.0e-4

velocity        all create 300 234324 dist gaussian
neighbor        2.5 bin
neigh_modify    delay 2 every 1 check yes

thermo		10
thermo_style 	custom step pe temp evdwl ecoul vol press spcpu
thermo_modify   norm yes

minimize        1.0e-4 1.0e-6 100 1000
PPPM initialization ...
  G vector = 0.186884
  grid = 36 36 36
  stencil order = 5
  RMS precision = 5.73697e-05
  brick FFT buffer size/proc = 2744 900 1764
Step PotEng Temp E_vdwl E_coul Volume Press S/CPU
0     656.3994          300    623.49127      10.7913      1000000     13052196            0
Loop time of 15.6529 on 64 procs for 61 steps with 84000 atoms

Minimization stats:
  Stopping criterion = energy tolerance
  Energy initial, next-to-last, final =
  Force two-norm initial, final = 2.24428e+07 2294.6
  Force max component initial, final = 305690 24.2716
  Final line search alpha, max atom move = 1.45951e-05 0.000354246
  Iterations, force evaluations = 61 262

Pair  time (%) = 13.0045 (83.081)
Bond  time (%) = 0.042261 (0.269989)
Kspce time (%) = 2.03122 (12.9766)
Neigh time (%) = 0 (0)
Comm  time (%) = 0.481729 (3.07758)
Outpt time (%) = 0.00219841 (0.0140448)
Other time (%) = 0.0909053 (0.580759)

FFT Gflps 3d (1d only) = 4.30327 81.2365

reset_timestep	0

thermo		500

fix             1 all shake 0.0001 20 2000 b 1 a 1
fix             2 all npt temp 300.0 300.0 100.0 iso 0.0 0.0 1000.0

timestep 	2.0

run 		10000
PPPM initialization ...
  G vector = 0.186884
  grid = 36 36 36
  stencil order = 5
  RMS precision = 5.73697e-05
  brick FFT buffer size/proc = 2744 900 1764
SHAKE stats (type/ave/delta) on step 0
Step PotEng Temp E_vdwl E_coul Volume Press S/CPU
0    -2.430529    450.00268   0.25666245    9.4792524      1000000    2614.6351            0
Averages over the last 11 of 21 rows, steps 5000 to 10000:
PotEng Temp E_vdwl E_coul Volume Press
-3.26678 299.899 0.343829 8.56223 829644 11.1354
Loop time of 682.827 on 64 procs for 10000 steps with 84000 atoms

Pair  time (%) = 483.517 (70.8109)
Bond  time (%) = 0.0232459 (0.00340436)
Kspce time (%) = 85.0083 (12.4495)
Neigh time (%) = 57.1715 (8.37276)
Comm  time (%) = 24.0325 (3.51955)
Outpt time (%) = 0.00800043 (0.00117166)
Other time (%) = 33.0673 (4.8427)

FFT Gflps 3d (1d only) = 4.32778 79.4241
