LAMMPS (19 Nov 2010-ICMS)
# TIPS water from charmm.

boundary 	p p p
units		real
atom_style	full
special_bonds lj/coul 0.0 0.0 1.0

read_data	data.wat
  orthogonal box = (-5.2675 -4.985 -4.9345) to (4.7325 5.015 5.0655)
  84 atoms
  56 bonds
  28 angles

replicate 10 10 10
  orthogonal box = (-5.2675 -4.985 -4.9345) to (94.7325 95.015 95.0655)
  84000 atoms
  56000 bonds
  28000 angles

pair_style	lj/cut/coul/long 14.0
pair_modify	mix arithmetic
pair_coeff	2 2 0.1521000000 3.15057
pair_coeff	1 1 0.046        0.400014

# 100x larger for minimize
angle_style     harmonic
angle_coeff     1 5500 104.52

# 100x larger constant for minimize
bond_style      harmonic
bond_coeff      1 45000 0.9572

kspace_style	pppm 1.0e-4

velocity        all create 300 234324 dist gaussian
neighbor        2.5 bin
neigh_modify    delay 2 every 1 check yes

thermo		10
thermo_style 	custom step pe temp evdwl ecoul vol press spcpu
thermo_modify   norm yes

minimize        1.0e-4 1.0e-6 100 1000
PPPM initialization ...
  G vector = 0.186884
  grid = 36 36 36
  stencil order = 5
  RMS precision = 5.73697e-05
  brick FFT buffer size/proc = 1540 324 1848
Step PotEng Temp E_vdwl E_coul Volume Press S/CPU
0     656.3994          300    623.49127      10.7913      1000000     13052196            0
Loop time of 12.4012 on 192 procs for 65 steps with 84000 atoms

Minimization stats:
  Stopping criterion = energy tolerance
  Energy initial, next-to-last, final =
  Force two-norm initial, final = 2.24428e+07 1730.52
  Force max component initial, final = 305690 21.2948
  Final line search alpha, max atom move = 5.00893e-06 0.000106664
  Iterations, force evaluations = 65 313

Pair  time (%) = 5.53064 (44.5977)
Bond  time (%) = 0.0170702 (0.13765)
Kspce time (%) = 5.84682 (47.1473)
Neigh time (%) = 0 (0)
Comm  time (%) = 0.865903 (6.98244)
Outpt time (%) = 0.00226127 (0.0182343)
Other time (%) = 0.138474 (1.11662)

FFT Gflps 3d (1d only) = 0.771049 198.232

reset_timestep	0

thermo		500

fix             1 all shake 0.0001 20 2000 b 1 a 1
fix             2 all npt temp 300.0 300.0 100.0 iso 0.0 0.0 1000.0

timestep 	2.0

run 		10000
PPPM initialization ...
  G vector = 0.186884
  grid = 36 36 36
  stencil order = 5
  RMS precision = 5.73697e-05
  brick FFT buffer size/proc = 1540 324 1848
SHAKE stats (type/ave/delta) on step 0
Step PotEng Temp E_vdwl E_coul Volume Press S/CPU
0   -2.3339536    450.00268   0.26307523    9.5673715      1000000    3415.7941            0
Averages over the last 11 of 21 rows, steps 5000 to 10000:
PotEng Temp E_vdwl E_coul Volume Press
-3.26471 299.824 0.341641 8.56653 829258 -17.0852
Loop time of 430.694 on 192 procs for 10000 steps with 84000 atoms

Pair  time (%) = 167.416 (38.8712)
Bond  time (%) = 0.0252663 (0.00586641)
Kspce time (%) = 179.486 (41.6736)
Neigh time (%) = 18.7471 (4.35275)
Comm  time (%) = 35.0826 (8.14558)
Outpt time (%) = 0.00815926 (0.00189444)
Other time (%) = 29.9295 (6.94912)

FFT Gflps 3d (1d only) = 0.773823 200.502
