LAMMPS (19 Nov 2010-ICMS)
# TIPS water from charmm.

boundary 	p p p
units		real
atom_style	full
special_bonds lj/coul 0.0 0.0 1.0

read_data	data.wat
  orthogonal box = (-5.2675 -4.985 -4.9345) to (4.7325 5.015 5.0655)
  84 atoms
  56 bonds
  28 angles

replicate 10 10 10
  orthogonal box = (-5.2675 -4.985 -4.9345) to (94.7325 95.015 95.0655)
  84000 atoms
  56000 bonds
  28000 angles

pair_style	lj/cut/coul/long/omp 14.0
pair_modify	mix arithmetic
pair_coeff	2 2 0.1521000000 3.15057
pair_coeff	1 1 0.046        0.400014

# 100x larger for minimize
angle_style     harmonic
angle_coeff     1 5500 104.52

# 100x larger constant for minimize
bond_style      harmonic
bond_coeff      1 45000 0.9572

kspace_style	pppm 1.0e-4

velocity        all create 300 234324 dist gaussian
neighbor        2.5 bin
neigh_modify    delay 2 every 1 check yes

thermo		10
thermo_style 	custom step pe temp evdwl ecoul vol press spcpu
thermo_modify   norm yes

minimize        1.0e-4 1.0e-6 100 1000
PPPM initialization ...
  G vector = 0.186884
  grid = 36 36 36
  stencil order = 5
  RMS precision = 5.73697e-05
  brick FFT buffer size/proc = 2744 900 1764
Step PotEng Temp E_vdwl E_coul Volume Press S/CPU
0     656.3994          300    623.49127      10.7913      1000000     13052196            0
Loop time of 34.2716 on 192 procs (64 MPI x 3 OpenMP) for 82 steps with 84000 atoms

Minimization stats:
  Stopping criterion = energy tolerance
  Energy initial, next-to-last, final =
  Force two-norm initial, final = 2.24428e+07 996.142
  Force max component initial, final = 305690 6.52707
  Final line search alpha, max atom move = 7.85151e-06 5.12473e-05
  Iterations, force evaluations = 82 417

Pair  time (%) = 24.5209 (71.5489)
Bond  time (%) = 0.0651888 (0.190212)
Kspce time (%) = 8.716 (25.4322)
Neigh time (%) = 0 (0)
Comm  time (%) = 0.795537 (2.32127)
Outpt time (%) = 0.00303968 (0.00886939)
Other time (%) = 0.170888 (0.498629)

FFT Gflps 3d (1d only) = 4.10249 81.3567

reset_timestep	0

thermo		500

fix             1 all shake 0.0001 20 2000 b 1 a 1
fix             2 all npt temp 300.0 300.0 100.0 iso 0.0 0.0 1000.0

timestep 	2.0

run 		10000
PPPM initialization ...
  G vector = 0.186884
  grid = 36 36 36
  stencil order = 5
  RMS precision = 5.73697e-05
  brick FFT buffer size/proc = 2744 900 1764
SHAKE stats (type/ave/delta) on step 0
Step PotEng Temp E_vdwl E_coul Volume Press S/CPU
0   -2.5903396    450.00268   0.22908091    9.3496822      1000000    948.53777            0
Averages over the last 11 of 21 rows, steps 5000 to 10000:
PotEng Temp E_vdwl E_coul Volume Press
-3.26511 299.526 0.34272 8.56503 829643 -5.38262
Loop time of 348.763 on 192 procs (64 MPI x 3 OpenMP) for 10000 steps with 84000 atoms

Pair  time (%) = 170.61 (48.9185)
Bond  time (%) = 0.0251774 (0.00721906)
Kspce time (%) = 64.173 (18.4002)
Neigh time (%) = 57.2283 (16.4089)
Comm  time (%) = 23.5579 (6.7547)
Outpt time (%) = 0.00743095 (0.00213066)
Other time (%) = 33.1615 (9.50833)

FFT Gflps 3d (1d only) = 4.34141 82.0643
