LAMMPS (19 Nov 2010-ICMS)
# TIPS water from charmm.

boundary 	p p p
units		real
atom_style	full
special_bonds lj/coul 0.0 0.0 1.0

read_data	data.wat
  orthogonal box = (-5.2675 -4.985 -4.9345) to (4.7325 5.015 5.0655)
  84 atoms
  56 bonds
  28 angles

replicate 10 10 10
  orthogonal box = (-5.2675 -4.985 -4.9345) to (94.7325 95.015 95.0655)
  84000 atoms
  56000 bonds
  28000 angles

pair_style	lj/cut/coul/long 14.0
pair_modify	mix arithmetic
pair_coeff	2 2 0.1521000000 3.15057
pair_coeff	1 1 0.046        0.400014

# 100x larger for minimize
angle_style     harmonic
angle_coeff     1 5500 104.52

# 100x larger constant for minimize
bond_style      harmonic
bond_coeff      1 45000 0.9572

kspace_style	pppm 1.0e-4

velocity        all create 300 234324 dist gaussian
neighbor        2.5 bin
neigh_modify    delay 2 every 1 check yes

thermo		10
thermo_style 	custom step pe temp evdwl ecoul vol press spcpu
thermo_modify   norm yes

minimize        1.0e-4 1.0e-6 100 1000
PPPM initialization ...
  G vector = 0.186884
  grid = 36 36 36
  stencil order = 5
  RMS precision = 5.73697e-05
  brick FFT buffer size/proc = 4508 2592 2898
Step PotEng Temp E_vdwl E_coul Volume Press S/CPU
0     656.3994          300    623.49127      10.7913      1000000     13052196            0
Loop time of 61.6279 on 32 procs for 89 steps with 84000 atoms

Minimization stats:
  Stopping criterion = energy tolerance
  Energy initial, next-to-last, final =
  Force two-norm initial, final = 2.24428e+07 939.714
  Force max component initial, final = 305690 6.36809
  Final line search alpha, max atom move = 5.21782e-06 3.32275e-05
  Iterations, force evaluations = 89 461

Pair  time (%) = 45.6157 (74.0179)
Bond  time (%) = 0.14565 (0.236337)
Kspce time (%) = 10.4379 (16.9369)
Neigh time (%) = 0 (0)
Comm  time (%) = 4.71965 (7.6583)
Outpt time (%) = 0.0124789 (0.0202487)
Other time (%) = 0.69659 (1.13032)

FFT Gflps 3d (1d only) = 4.45587 38.9725

reset_timestep	0

thermo		500

fix             1 all shake 0.0001 20 2000 b 1 a 1
fix             2 all npt temp 300.0 300.0 100.0 iso 0.0 0.0 1000.0

timestep 	2.0

run 		10000
PPPM initialization ...
  G vector = 0.186884
  grid = 36 36 36
  stencil order = 5
  RMS precision = 5.73697e-05
  brick FFT buffer size/proc = 4508 2592 2898
SHAKE stats (type/ave/delta) on step 0
Step PotEng Temp E_vdwl E_coul Volume Press S/CPU
0    -2.544211    450.00268   0.23688674    9.3872395      1000000    1439.5403            0
Averages over the last 11 of 21 rows, steps 5000 to 10000:
PotEng Temp E_vdwl E_coul Volume Press
-3.26604 300.128 0.343508 8.56327 829874 -1.19478
Loop time of 1382.93 on 32 procs for 10000 steps with 84000 atoms

Pair  time (%) = 965.589 (69.8221)
Bond  time (%) = 0.0230094 (0.00166382)
Kspce time (%) = 162.512 (11.7513)
Neigh time (%) = 117.23 (8.47692)
Comm  time (%) = 54.4906 (3.94024)
Outpt time (%) = 0.00838654 (0.000606434)
Other time (%) = 83.0747 (6.00716)

FFT Gflps 3d (1d only) = 4.45741 38.991
