LAMMPS (19 Nov 2010-ICMS)
# TIPS water from charmm.

boundary 	p p p
units		real
atom_style	full
special_bonds lj/coul 0.0 0.0 1.0

read_data	data.wat
  orthogonal box = (-5.2675 -4.985 -4.9345) to (4.7325 5.015 5.0655)
  84 atoms
  56 bonds
  28 angles

replicate 10 10 10
  orthogonal box = (-5.2675 -4.985 -4.9345) to (94.7325 95.015 95.0655)
  84000 atoms
  56000 bonds
  28000 angles

pair_style	lj/cut/coul/long/omp 14.0
pair_modify	mix arithmetic
pair_coeff	2 2 0.1521000000 3.15057
pair_coeff	1 1 0.046        0.400014

# 100x larger for minimize
angle_style     harmonic
angle_coeff     1 5500 104.52

# 100x larger constant for minimize
bond_style      harmonic
bond_coeff      1 45000 0.9572

kspace_style	pppm 1.0e-4

velocity        all create 300 234324 dist gaussian
neighbor        2.5 bin
neigh_modify    delay 2 every 1 check yes

thermo		10
thermo_style 	custom step pe temp evdwl ecoul vol press spcpu
thermo_modify   norm yes

minimize        1.0e-4 1.0e-6 100 1000
PPPM initialization ...
  G vector = 0.186884
  grid = 36 36 36
  stencil order = 5
  RMS precision = 5.73697e-05
  brick FFT buffer size/proc = 1540 324 1848
Step PotEng Temp E_vdwl E_coul Volume Press S/CPU
0     656.3994          300    623.49127      10.7913      1000000     13052196            0
Loop time of 21.0654 on 192 procs (192 MPI x 1 OpenMP) for 100 steps with 84000 atoms

Minimization stats:
  Stopping criterion = energy tolerance
  Energy initial, next-to-last, final =
  Force two-norm initial, final = 2.24428e+07 1829.26
  Force max component initial, final = 305690 23.4696
  Final line search alpha, max atom move = 1.91763e-05 0.000450061
  Iterations, force evaluations = 100 544

Pair  time (%) = 9.18869 (43.6198)
Bond  time (%) = 0.0296899 (0.140942)
Kspce time (%) = 10.1678 (48.2677)
Neigh time (%) = 0 (0)
Comm  time (%) = 1.47011 (6.9788)
Outpt time (%) = 0.00338993 (0.0160924)
Other time (%) = 0.205759 (0.976759)

FFT Gflps 3d (1d only) = 0.77423 198.244

reset_timestep	0

thermo		500

fix             1 all shake 0.0001 20 2000 b 1 a 1
fix             2 all npt temp 300.0 300.0 100.0 iso 0.0 0.0 1000.0

timestep 	2.0

run 		10000
PPPM initialization ...
  G vector = 0.186884
  grid = 36 36 36
  stencil order = 5
  RMS precision = 5.73697e-05
  brick FFT buffer size/proc = 1540 324 1848
SHAKE stats (type/ave/delta) on step 0
Step PotEng Temp E_vdwl E_coul Volume Press S/CPU
0   -2.5835685    450.00268    0.2350563    9.3507893      1000000    1130.7596            0
Averages over the last 11 of 21 rows, steps 5000 to 10000:
PotEng Temp E_vdwl E_coul Volume Press
-3.26671 300.148 0.344253 8.56188 829212 30.992
Loop time of 428.088 on 192 procs (192 MPI x 1 OpenMP) for 10000 steps with 84000 atoms

Pair  time (%) = 161.614 (37.7526)
Bond  time (%) = 0.0262945 (0.00614231)
Kspce time (%) = 181.337 (42.3599)
Neigh time (%) = 18.7438 (4.37851)
Comm  time (%) = 35.7621 (8.35391)
Outpt time (%) = 0.00797678 (0.00186335)
Other time (%) = 30.596 (7.14713)

FFT Gflps 3d (1d only) = 0.776929 201.262
