LAMMPS (19 Nov 2010-ICMS)
# TIPS water from charmm.

boundary 	p p p
units		real
atom_style	full
special_bonds lj/coul 0.0 0.0 1.0

read_data	data.wat
  orthogonal box = (-5.2675 -4.985 -4.9345) to (4.7325 5.015 5.0655)
  84 atoms
  56 bonds
  28 angles

replicate 10 10 10
  orthogonal box = (-5.2675 -4.985 -4.9345) to (94.7325 95.015 95.0655)
  84000 atoms
  56000 bonds
  28000 angles

pair_style	lj/cut/coul/long 14.0
pair_modify	mix arithmetic
pair_coeff	2 2 0.1521000000 3.15057
pair_coeff	1 1 0.046        0.400014

# 100x larger for minimize
angle_style     harmonic
angle_coeff     1 5500 104.52

# 100x larger constant for minimize
bond_style      harmonic
bond_coeff      1 45000 0.9572

kspace_style	pppm 1.0e-4

velocity        all create 300 234324 dist gaussian
neighbor        2.5 bin
neigh_modify    delay 2 every 1 check yes

thermo		10
thermo_style 	custom step pe temp evdwl ecoul vol press spcpu
thermo_modify   norm yes

minimize        1.0e-4 1.0e-6 100 1000
PPPM initialization ...
  G vector = 0.186884
  grid = 36 36 36
  stencil order = 5
  RMS precision = 5.73697e-05
  brick FFT buffer size/proc = 2156 540 2352
Step PotEng Temp E_vdwl E_coul Volume Press S/CPU
0     656.3994          300    623.49127      10.7913      1000000     13052196            0
Loop time of 24.1454 on 112 procs (112 MPI x 1 OpenMP) for 100 steps with 84000 atoms

Minimization stats:
  Stopping criterion = max iterations
  Energy initial, next-to-last, final =
  Force two-norm initial, final = 2.24428e+07 2744.95
  Force max component initial, final = 305690 25.1298
  Final line search alpha, max atom move = 1.06042e-05 0.000266483
  Iterations, force evaluations = 100 512

Pair  time (%) = 15.1676 (62.818)
Bond  time (%) = 0.0571719 (0.236782)
Kspce time (%) = 6.28296 (26.0214)
Neigh time (%) = 0 (0)
Comm  time (%) = 1.92355 (7.96654)
Outpt time (%) = 0.0113722 (0.0470989)
Other time (%) = 0.702685 (2.91023)

FFT Gflps 3d (1d only) = 1.32788 113.973

reset_timestep	0

thermo		500

fix             1 all shake 0.0001 20 2000 b 1 a 1
fix             2 all npt temp 300.0 300.0 100.0 iso 0.0 0.0 1000.0

timestep 	2.0

run 		10000
PPPM initialization ...
  G vector = 0.186884
  grid = 36 36 36
  stencil order = 5
  RMS precision = 5.73697e-05
  brick FFT buffer size/proc = 2156 540 2352
SHAKE stats (type/ave/delta) on step 0
Step PotEng Temp E_vdwl E_coul Volume Press S/CPU
0   -2.7307735    450.00268   0.20310392    9.2375071      1000000   -567.14281            0
Averages over the last 11 of 21 rows, steps 5000 to 10000:
PotEng Temp E_vdwl E_coul Volume Press
-3.26602 299.523 0.342492 8.56436 829468 -17.1118
Loop time of 527.104 on 112 procs (112 MPI x 1 OpenMP) for 10000 steps with 84000 atoms

Pair  time (%) = 278.55 (52.8455)
Bond  time (%) = 0.0291571 (0.00553158)
Kspce time (%) = 123.679 (23.4638)
Neigh time (%) = 31.8872 (6.04952)
Comm  time (%) = 47.3316 (8.97956)
Outpt time (%) = 0.0226973 (0.00430604)
Other time (%) = 45.6038 (8.65178)

FFT Gflps 3d (1d only) = 1.30311 110.522
