LAMMPS (19 Nov 2010-ICMS)
# TIPS water from charmm.

boundary 	p p p
units		real
atom_style	full
special_bonds lj/coul 0.0 0.0 1.0

read_data	data.wat
  orthogonal box = (-5.2675 -4.985 -4.9345) to (4.7325 5.015 5.0655)
  84 atoms
  56 bonds
  28 angles

replicate 10 10 10
  orthogonal box = (-5.2675 -4.985 -4.9345) to (94.7325 95.015 95.0655)
  84000 atoms
  56000 bonds
  28000 angles

pair_style	lj/cut/coul/long/omp 14.0
pair_modify	mix arithmetic
pair_coeff	2 2 0.1521000000 3.15057
pair_coeff	1 1 0.046        0.400014

# 100x larger for minimize
angle_style     harmonic
angle_coeff     1 5500 104.52

# 100x larger constant for minimize
bond_style      harmonic
bond_coeff      1 45000 0.9572

kspace_style	pppm 1.0e-4

velocity        all create 300 234324 dist gaussian
neighbor        2.5 bin
neigh_modify    delay 2 every 1 check yes

thermo		10
thermo_style 	custom step pe temp evdwl ecoul vol press spcpu
thermo_modify   norm yes

minimize        1.0e-4 1.0e-6 100 1000
PPPM initialization ...
  G vector = 0.186884
  grid = 36 36 36
  stencil order = 5
  RMS precision = 5.73697e-05
  brick FFT buffer size/proc = 4508 2592 2898
Step PotEng Temp E_vdwl E_coul Volume Press S/CPU
0     656.3994          300    623.49127      10.7913      1000000     13052196            0
Loop time of 61.4362 on 192 procs (32 MPI x 6 OpenMP) for 77 steps with 84000 atoms

Minimization stats:
  Stopping criterion = energy tolerance
  Energy initial, next-to-last, final =
  Force two-norm initial, final = 2.24428e+07 1533.54
  Force max component initial, final = 305690 14.1482
  Final line search alpha, max atom move = 1.35901e-05 0.000192276
  Iterations, force evaluations = 77 402

Pair  time (%) = 44.0378 (71.6805)
Bond  time (%) = 0.1229 (0.200045)
Kspce time (%) = 12.4179 (20.2127)
Neigh time (%) = 0 (0)
Comm  time (%) = 4.38916 (7.14425)
Outpt time (%) = 0.00312095 (0.00507999)
Other time (%) = 0.465304 (0.757377)

FFT Gflps 3d (1d only) = 0.801233 39.9186

reset_timestep	0

thermo		500

fix             1 all shake 0.0001 20 2000 b 1 a 1
fix             2 all npt temp 300.0 300.0 100.0 iso 0.0 0.0 1000.0

timestep 	2.0

run 		10000
PPPM initialization ...
  G vector = 0.186884
  grid = 36 36 36
  stencil order = 5
  RMS precision = 5.73697e-05
  brick FFT buffer size/proc = 4508 2592 2898
SHAKE stats (type/ave/delta) on step 0
Step PotEng Temp E_vdwl E_coul Volume Press S/CPU
0   -2.3668301    450.00268   0.25920911    9.5389261      1000000    3095.6739            0
Averages over the last 11 of 21 rows, steps 5000 to 10000:
PotEng Temp E_vdwl E_coul Volume Press
-3.26706 300.518 0.342521 8.56323 829763 -28.1804
Loop time of 508.116 on 192 procs (32 MPI x 6 OpenMP) for 10000 steps with 84000 atoms

Pair  time (%) = 176.739 (34.7831)
Bond  time (%) = 0.0249199 (0.00490436)
Kspce time (%) = 106.119 (20.8847)
Neigh time (%) = 114.88 (22.609)
Comm  time (%) = 40.2467 (7.92076)
Outpt time (%) = 0.0082835 (0.00163024)
Other time (%) = 70.0988 (13.7958)

FFT Gflps 3d (1d only) = 4.2895 39.0367
