LAMMPS (19 Nov 2010-ICMS)
# TIPS water from charmm.

boundary 	p p p
units		real
atom_style	full
special_bonds lj/coul 0.0 0.0 1.0

read_data	data.wat
  orthogonal box = (-5.2675 -4.985 -4.9345) to (4.7325 5.015 5.0655)
  84 atoms
  56 bonds
  28 angles

replicate 10 10 10
  orthogonal box = (-5.2675 -4.985 -4.9345) to (94.7325 95.015 95.0655)
  84000 atoms
  56000 bonds
  28000 angles

pair_style	lj/cut/coul/long/omp 14.0
pair_modify	mix arithmetic
pair_coeff	2 2 0.1521000000 3.15057
pair_coeff	1 1 0.046        0.400014

# 100x larger for minimize
angle_style     harmonic
angle_coeff     1 5500 104.52

# 100x larger constant for minimize
bond_style      harmonic
bond_coeff      1 45000 0.9572

kspace_style	pppm 1.0e-4

velocity        all create 300 234324 dist gaussian
neighbor        2.5 bin
neigh_modify    delay 2 every 1 check yes

thermo		10
thermo_style 	custom step pe temp evdwl ecoul vol press spcpu
thermo_modify   norm yes

minimize        1.0e-4 1.0e-6 100 1000
PPPM initialization ...
  G vector = 0.186884
  grid = 36 36 36
  stencil order = 5
  RMS precision = 5.73697e-05
  brick FFT buffer size/proc = 2156 540 1764
Step PotEng Temp E_vdwl E_coul Volume Press S/CPU
0     656.3994          300    623.49127      10.7913      1000000     13052196            0
Loop time of 21.0111 on 192 procs (96 MPI x 2 OpenMP) for 70 steps with 84000 atoms

Minimization stats:
  Stopping criterion = energy tolerance
  Energy initial, next-to-last, final =
  Force two-norm initial, final = 2.24428e+07 1338.05
  Force max component initial, final = 305690 11.0303
  Final line search alpha, max atom move = 7.51918e-06 8.29387e-05
  Iterations, force evaluations = 70 337

Pair  time (%) = 13.2823 (63.2156)
Bond  time (%) = 0.0369634 (0.175923)
Kspce time (%) = 6.82542 (32.4848)
Neigh time (%) = 0 (0)
Comm  time (%) = 0.719516 (3.42445)
Outpt time (%) = 0.00216058 (0.010283)
Other time (%) = 0.144752 (0.688932)

FFT Gflps 3d (1d only) = 1.98851 126.589

reset_timestep	0

thermo		500

fix             1 all shake 0.0001 20 2000 b 1 a 1
fix             2 all npt temp 300.0 300.0 100.0 iso 0.0 0.0 1000.0

timestep 	2.0

run 		10000
PPPM initialization ...
  G vector = 0.186884
  grid = 36 36 36
  stencil order = 5
  RMS precision = 5.73697e-05
  brick FFT buffer size/proc = 2156 540 1764
SHAKE stats (type/ave/delta) on step 0
Step PotEng Temp E_vdwl E_coul Volume Press S/CPU
0   -2.4183177    450.00268   0.25155043    9.4960076      1000000    2597.7791            0
Averages over the last 11 of 21 rows, steps 5000 to 10000:
PotEng Temp E_vdwl E_coul Volume Press
-3.26487 299.627 0.342184 8.56578 829758 -25.6687
Loop time of 347.841 on 192 procs (96 MPI x 2 OpenMP) for 10000 steps with 84000 atoms

Pair  time (%) = 167.067 (48.0296)
Bond  time (%) = 0.0254148 (0.00730646)
Kspce time (%) = 88.8077 (25.5311)
Neigh time (%) = 37.6125 (10.8131)
Comm  time (%) = 25.4734 (7.32328)
Outpt time (%) = 0.00827703 (0.00237954)
Other time (%) = 28.8472 (8.29321)

FFT Gflps 3d (1d only) = 1.97144 118.633
